data_image0
_chemical_formula_structural       H24O12
_chemical_formula_sum              "H24 O12"
_cell_length_a       7.50577927899144
_cell_length_b       7.5057785345897505
_cell_length_c       7.072207002581567
_cell_angle_alpha    90.0
_cell_angle_beta     90.0
_cell_angle_gamma    60.00000102757406

_space_group_name_H-M_alt    "P 1"
_space_group_IT_number       1

loop_
  _space_group_symop_operation_xyz
  'x, y, z'

loop_
  _atom_site_type_symbol
  _atom_site_label
  _atom_site_symmetry_multiplicity
  _atom_site_fract_x
  _atom_site_fract_y
  _atom_site_fract_z
  _atom_site_occupancy
  H   H1        1.0  0.9999927932517689  0.33559404405773524  0.20321229010466205  1.0000
  H   H2        1.0  0.664391659502869  0.9999928209594388  0.20321228839552466  1.0000
  H   H3        1.0  0.3355938405665831  0.6643917736246537  0.20321227661547311  1.0000
  H   H4        1.0  0.33559411821358703  0.9999924558887434  0.7032127068491866  1.0000
  H   H5        1.0  0.9999929845353784  0.6643912338250837  0.7032127075373118  1.0000
  H   H6        1.0  0.6643919372672763  0.335593503169849  0.7032126950281411  1.0000
  H   H7        1.0  0.5382734989416497  0.9999933437312997  0.016881432432757637  1.0000
  H   H8        1.0  0.99999253875986  0.4617124078933098  0.01688160138860696  1.0000
  H   H9        1.0  0.46171157004732793  0.5382743124553158  0.016881263142579997  1.0000
  H   H10       1.0  0.46171194962198236  0.9999919335249134  0.5168815684228506  1.0000
  H   H11       1.0  0.9999932390289367  0.5382731991013711  0.5168817364389777  1.0000
  H   H12       1.0  0.5382745368930943  0.4617106356406282  0.5168813991145563  1.0000
  H   H13       1.0  0.33126814948486677  0.8748969607159987  0.9852875660678475  1.0000
  H   H14       1.0  0.2061717586430269  0.12508977491930096  0.9852873020533508  1.0000
  H   H15       1.0  0.8748961315168552  0.7938141374556413  0.9852872984649057  1.0000
  H   H16       1.0  0.7938133243150789  0.3312689787032677  0.985287436839528  1.0000
  H   H17       1.0  0.668716935719761  0.20617256425896455  0.9852875732340833  1.0000
  H   H18       1.0  0.12508972701461654  0.20617104032266825  0.48528734653836286  1.0000
  H   H19       1.0  0.6687176444201537  0.1250884001524224  0.48528761476143006  1.0000
  H   H20       1.0  0.7938141177012021  0.8748954235438154  0.4852873517475905  1.0000
  H   H21       1.0  0.20617235492679062  0.6687163182846675  0.4852874865433534  1.0000
  H   H22       1.0  0.33126882593583484  0.7938128127084132  0.4852876219463541  1.0000
  H   H23       1.0  0.8748967611258655  0.33126751998990267  0.48528747412263734  1.0000
  H   H24       1.0  0.12508893588121217  0.6687177385819845  0.9852874260651858  1.0000
  O   O1        1.0  0.9999925573199006  0.3335530002869008  0.060622209734348856  1.0000
  O   O2        1.0  0.6664328578931735  0.9999932993221313  0.06062221298363852  1.0000
  O   O3        1.0  0.3335522644359409  0.6664335922013312  0.06062220290749538  1.0000
  O   O4        1.0  0.33355328685036767  0.9999919773814673  0.5606216184252819  1.0000
  O   O5        1.0  0.6664331464163568  0.3335520514412637  0.5606216083964887  1.0000
  O   O6        1.0  0.3336759862208924  0.9999933049126533  0.9363637435230907  1.0000
  O   O7        1.0  0.6663091672284291  0.33367670545806655  0.9363637301973833  1.0000
  O   O8        1.0  0.9999932099691661  0.3336755400034348  0.4363636256796989  1.0000
  O   O9        1.0  0.6663096545095761  0.9999919730798301  0.43636362029033016  1.0000
  O   O10       1.0  0.33367674759141563  0.666308435472005  0.4363636069782347  1.0000
  O   O11       1.0  0.9999932204724433  0.6664319137155404  0.5606216180183655  1.0000
  O   O12       1.0  0.9999925677764693  0.6663098732155559  0.9363637490099808  1.0000
