30
Lattice="6.227032397455403 -0.0163927873968318 0.0040454185171384 -0.0509592618291696 6.227818521324251 0.0119537734634734 0.0341617017967277 -0.0197568446743032 5.826899309404595" Properties=species:S:1:pos:R:3:forces:R:3 energy=-148.99661017924876 pbc="T T T"
H        2.69612536       1.48819511      -0.01409930      -0.00003012       0.00000504       0.00000465
H        3.26033795       4.62558392       5.78115596      -0.00000028       0.00000300       0.00000138
H        0.15037096       1.46436527      -0.02132408       0.00002602       0.00006388       0.00002895
H        5.80609106       4.64941377       5.78838297      -0.00002614      -0.00002702      -0.00004666
H        1.38333300       2.21567481       1.97562327       0.00003812      -0.00003886       0.00000503
H        4.57313255       3.89811355       3.79143170      -0.00004818      -0.00004527       0.00001898
H        1.42432068       0.67164215       1.91604828       0.00000368       0.00000090       0.00003367
H        4.53214380       5.44213620       3.85101093      -0.00001403       0.00006668      -0.00001754
H        1.45744334       4.13885304       3.55257253      -0.00002037      -0.00000706      -0.00001612
H        4.49902039       1.97492663       2.21448903      -0.00002874       0.00005901      -0.00001882
H        4.12139083       1.47129849       4.99276262       0.00001338       0.00003286       0.00000605
H        1.83506925       4.64246813       0.77429740       0.00000469       0.00003191      -0.00002897
H        2.17877895       2.76893579       3.99946580       0.00005288      -0.00005127       0.00003086
H        3.77767820       3.34485122       1.76759314      -0.00003112      -0.00001321      -0.00003339
H        2.22683368       0.20191636       3.99903718      -0.00002407       0.00000543       0.00003415
H        3.72963257       5.91186386       1.76801731      -0.00005239       0.00001908      -0.00000629
H        0.69080137       0.10446345       4.00489804       0.00003247      -0.00004213      -0.00003380
H        5.26565458       6.00931841       1.76215629       0.00003685       0.00005961       0.00005652
H        0.12811357       2.17559537       4.42430766       0.00003999      -0.00000384       0.00003646
H        5.82835114       3.93818737       1.34274646      -0.00005291       0.00000406       0.00000589
O        1.41011452       1.46473360       1.32097045       0.00001004      -0.00002861      -0.00003959
O        4.54634431       4.64904751       4.44609172       0.00000627       0.00002978      -0.00001909
O        1.39728833       3.14595860       3.51867499       0.00003698      -0.00004005       0.00001345
O        4.55917069       2.96782263       2.24837723      -0.00000491       0.00006895       0.00002266
O        1.43048128       5.94366875       3.56171626       0.00003602      -0.00005394      -0.00004913
O        4.52597921       0.17011356       2.20534539      -0.00003091       0.00002129       0.00001727
O        5.92700456       1.42333388       4.94183882       0.00000848      -0.00001977       0.00001813
O        0.02945092       4.69045934       0.82522342       0.00000994      -0.00003721      -0.00004133
O        3.13005075       1.47903333       4.90627297      -0.00001067      -0.00001212      -0.00001049
O        2.82640996       4.63476479       0.86078329       0.00001901      -0.00005112       0.00002712
