data_image0
_chemical_formula_structural       H24O12
_chemical_formula_sum              "H24 O12"
_cell_length_a       7.504403215619235
_cell_length_b       7.504402471361818
_cell_length_c       7.070910427689511
_cell_angle_alpha    89.99999999999953
_cell_angle_beta     90.0
_cell_angle_gamma    60.00000102760901

_space_group_name_H-M_alt    "P 1"
_space_group_IT_number       1

loop_
  _space_group_symop_operation_xyz
  'x, y, z'

loop_
  _atom_site_type_symbol
  _atom_site_label
  _atom_site_symmetry_multiplicity
  _atom_site_fract_x
  _atom_site_fract_y
  _atom_site_fract_z
  _atom_site_occupancy
  H   H1        1.0  0.999983029239773  0.33571930674013906  0.20319515338949043  1.0000
  H   H2        1.0  0.6642922290632858  9.106409511111293e-06  0.2031587654174162  1.0000
  H   H3        1.0  0.33570197251375894  0.6643165855926317  0.20315020926904553  1.0000
  H   H4        1.0  0.33553821587166094  0.9998753968733866  0.7035182767365449  1.0000
  H   H5        1.0  2.6970048643271127e-06  0.6644490200653811  0.7028922318213223  1.0000
  H   H6        1.0  0.6644388777455513  0.33541274184885317  0.7035078705285229  1.0000
  H   H7        1.0  0.5381544125174639  0.999978921776169  0.016864412032314063  1.0000
  H   H8        1.0  0.9999891286396985  0.46191138293015316  0.016615857253224918  1.0000
  H   H9        1.0  0.46183489636942837  0.5381414108762307  0.01685511009201315  1.0000
  H   H10       1.0  0.461796726090865  5.316282059952826e-05  0.5171843896876077  1.0000
  H   H11       1.0  0.9999971389151076  0.5380441614312822  0.5166954734038319  1.0000
  H   H12       1.0  0.5381852150866919  0.46185661846733006  0.5171733560961687  1.0000
  H   H13       1.0  0.33098836035696394  0.8749988540445341  0.9855485182513574  1.0000
  H   H14       1.0  0.2060918348041056  0.1253047681032149  0.9853364925612159  1.0000
  H   H15       1.0  0.8748711015973181  0.7938605729992604  0.985155088703214  1.0000
  H   H16       1.0  0.7938858467488347  0.3313979513455526  0.9853260727123847  1.0000
  H   H17       1.0  0.668995906171318  0.20598310429814837  0.9855474154484073  1.0000
  H   H18       1.0  0.12509903762430383  0.20591789064752072  0.4853142893700971  1.0000
  H   H19       1.0  0.6687907726025232  0.1251835482862813  0.48539609123028993  1.0000
  H   H20       1.0  0.7938128625291819  0.8749326275522038  0.48494462909293723  1.0000
  H   H21       1.0  0.20618145058798965  0.6687580059267146  0.48493609807436555  1.0000
  H   H22       1.0  0.3311963012335157  0.7939928790003488  0.4853978002273344  1.0000
  H   H23       1.0  0.8748764961895629  0.33102780589669817  0.4853116150632938  1.0000
  H   H24       1.0  0.12512456607544786  0.6687360493639936  0.9851535471309287  1.0000
  O   O1        1.0  0.9999839900894448  0.33374781703390305  0.06054901283170222  1.0000
  O   O2        1.0  0.6664281494292574  0.9998902826783086  0.060542031490295765  1.0000
  O   O3        1.0  0.3335658469810119  0.666330559920715  0.06053342802910957  1.0000
  O   O4        1.0  0.33358818776039023  3.459443489561842e-05  0.5608777356718222  1.0000
  O   O5        1.0  0.666389166474874  0.3336252154476591  0.5608672354902419  1.0000
  O   O6        1.0  0.3335798578675357  1.1597328894774606e-05  0.9365414951172956  1.0000
  O   O7        1.0  0.6664013913931054  0.3335858992664263  0.9365312699933269  1.0000
  O   O8        1.0  0.9999879232125376  0.33340170834829846  0.43627299513255946  1.0000
  O   O9        1.0  0.6661961512340996  0.0001830038700847414  0.4363358921203696  1.0000
  O   O10       1.0  0.3337942064455524  0.6663993482230612  0.4363275181837066  1.0000
  O   O11       1.0  1.8038871130166e-06  0.6662973849475095  0.5602593947205564  1.0000
  O   O12       1.0  0.9999982496458081  0.6663657152018001  0.9361102376246241  1.0000
