data_image0
_chemical_formula_structural       H24O12
_chemical_formula_sum              "H24 O12"
_cell_length_a       7.505779278991484
_cell_length_b       7.505778534589189
_cell_length_c       7.072207002582423
_cell_angle_alpha    90.0
_cell_angle_beta     90.0
_cell_angle_gamma    60.0000010275714

_space_group_name_H-M_alt    "P 1"
_space_group_IT_number       1

loop_
  _space_group_symop_operation_xyz
  'x, y, z'

loop_
  _atom_site_type_symbol
  _atom_site_label
  _atom_site_symmetry_multiplicity
  _atom_site_fract_x
  _atom_site_fract_y
  _atom_site_fract_z
  _atom_site_occupancy
  H   H1        1.0  0.9999927932517596  0.33559404405773885  0.2032122901046606  1.0000
  H   H2        1.0  0.6643916595028551  0.9999928209594383  0.2032122883955313  1.0000
  H   H3        1.0  0.3355938405665785  0.6643917736246476  0.2032122766154715  1.0000
  H   H4        1.0  0.3355941182136042  0.9999924558887423  0.7032127068491932  1.0000
  H   H5        1.0  0.9999929845353911  0.6643912338250784  0.70321270753731  1.0000
  H   H6        1.0  0.6643919372672841  0.33559350316985304  0.7032126950281391  1.0000
  H   H7        1.0  0.5382734989416424  0.999993343731299  0.01688143243277551  1.0000
  H   H8        1.0  0.9999925387598517  0.461712407893321  0.016881601388620483  1.0000
  H   H9        1.0  0.4617115700473328  0.5382743124553017  0.016881263142593545  1.0000
  H   H10       1.0  0.4617119496219932  0.9999919335249123  0.5168815684228688  1.0000
  H   H11       1.0  0.9999932390289481  0.5382731991013577  0.5168817364389917  1.0000
  H   H12       1.0  0.5382745368930935  0.46171063564063924  0.5168813991145703  1.0000
  H   H13       1.0  0.3312681494848782  0.8748969607159903  0.9852875660678371  1.0000
  H   H14       1.0  0.20617175864302995  0.12508977491930762  0.9852873020533405  1.0000
  H   H15       1.0  0.8748961315168564  0.7938141374556487  0.9852872984648947  1.0000
  H   H16       1.0  0.793813324315083  0.3312689787032658  0.9852874368395159  1.0000
  H   H17       1.0  0.6687169357197701  0.20617256425895603  0.9852875732340716  1.0000
  H   H18       1.0  0.1250897270146174  0.20617104032266084  0.48528734653835137  1.0000
  H   H19       1.0  0.6687176444201466  0.1250884001524306  0.48528761476141974  1.0000
  H   H20       1.0  0.7938141177012008  0.8748954235438092  0.48528735174757914  1.0000
  H   H21       1.0  0.20617235492678945  0.6687163182846678  0.4852874865433411  1.0000
  H   H22       1.0  0.3312688259358282  0.7938128127084209  0.48528762194634284  1.0000
  H   H23       1.0  0.874896761125865  0.3312675199899005  0.4852874741226254  1.0000
  H   H24       1.0  0.12508893588121417  0.6687177385819844  0.9852874260651732  1.0000
  O   O1        1.0  0.999992557319891  0.3335530002869065  0.060622209734364094  1.0000
  O   O2        1.0  0.6664328578931623  0.9999932993221305  0.0606222129836618  1.0000
  O   O3        1.0  0.3335522644359367  0.6664335922013245  0.0606222029075116  1.0000
  O   O4        1.0  0.3335532868503815  0.9999919773814663  0.5606216184253056  1.0000
  O   O5        1.0  0.6664331464163628  0.3335520514412702  0.5606216083965048  1.0000
  O   O6        1.0  0.3336759862209005  0.9999933049126507  0.9363637435230786  1.0000
  O   O7        1.0  0.6663091672284421  0.33367670545805894  0.9363637301973632  1.0000
  O   O8        1.0  0.9999932099691655  0.3336755400034262  0.43636362567967857  1.0000
  O   O9        1.0  0.6663096545095738  0.9999919730798265  0.4363636202903176  1.0000
  O   O10       1.0  0.3336767475914059  0.6663084354720105  0.4363636069782146  1.0000
  O   O11       1.0  0.9999932204724564  0.6664319137155347  0.5606216180183817  1.0000
  O   O12       1.0  0.9999925677764763  0.6663098732155611  0.936363749009961  1.0000
