18
Lattice="3.116753044394495 5.376174595259569 -0.0204149081686747 -3.0998500347949216 5.386602268284247 -0.0293056841941682 -0.0087214532495416 0.0276468375045884 5.942809314705834" Properties=species:S:1:pos:R:3:forces:R:3 energy=-89.68084833569715 pbc="T T T"
H        2.45476392       5.65340339       1.12271629       0.00001629      -0.00000419      -0.00003587
H       -2.91436307       5.09902575       3.09843292      -0.00000556       0.00001906      -0.00004022
H        0.25456320       0.74477465       5.10407086      -0.00000658      -0.00000814      -0.00003934
H        2.03765145       4.15555570       1.53039815       0.00000428      -0.00004604       0.00000303
H       -1.40762966       5.48950848       3.50011980       0.00003398       0.00001930       0.00000177
H       -0.83663566       1.85713473       5.49881545      -0.00003331       0.00003848       0.00000656
H        0.72206641       5.82774977       2.54209904       0.00004099      -0.00000123       0.00001094
H        0.91990584       8.89952395       4.50916165      -0.00001109       0.00003357       0.00002805
H       -1.82754310       7.52402905       0.54965620      -0.00003610      -0.00002275       0.00001128
H       -0.66143048       7.33430142       1.64271898       0.00003848      -0.00001882      -0.00000930
H        0.30501591       6.94101302       3.62697370       0.00001501       0.00003944      -0.00002093
H        0.16623452       7.99065868       5.60289988      -0.00002303       0.00000072      -0.00000684
O       -0.07645054       1.31414503       5.86432970      -0.00000615      -0.00001350       0.00003213
O        2.12850551       5.08833336       1.88822495       0.00000442       0.00000567       0.00003108
O       -2.26039627       5.10525049       3.86267692      -0.00001214      -0.00000375       0.00003045
O       -0.05560848       6.35205710       2.89693529      -0.00005865      -0.00004910       0.00001577
O        0.85535748       7.96684373       4.87188684       0.00003865      -0.00004321      -0.00001552
O       -0.98663734       7.93701465       0.90729391       0.00000051       0.00005447      -0.00000305
