36
Lattice="7.678093 0.0 0.0 3.839046 6.649423 0.0 0.0 0.0 7.234567" Properties=species:S:1:pos:R:3:forces:R:3 energy=-179.5857589855665 pbc="T T T"
H        1.28891766       2.23257992       1.44563724      -0.00000410      -0.00000820       0.00003243
H        5.10005341      -0.00005648       1.44568560      -0.00001115       0.00001102      -0.00000847
H        5.12791739       4.41680750       1.44568627       0.00001710      -0.00000519      -0.00000861
H        6.41695386       6.64935391       5.06296003       0.00001990      -0.00001929      -0.00002620
H       10.22806519       4.41676178       5.06300698       0.00001130       0.00002062      -0.00004462
H        6.38901491       2.23253304       5.06296087      -0.00002862       0.00000875      -0.00002637
H        4.16240684      -0.00001110       0.13659886       0.00001493      -0.00000875      -0.00002019
H        1.75773468       3.04462960       0.13656502      -0.00002249      -0.00004332       0.00002093
H        5.59675388       3.60481708       0.13658735      -0.00001070       0.00000609      -0.00001904
H        7.35458758       6.64930472       3.75386157      -0.00003852       0.00002716       0.00002287
H        9.75925454       3.60472308       3.75391407      -0.00000243       0.00000030      -0.00000535
H        5.92018146       3.04451055       3.75385028       0.00003854      -0.00001737       0.00002382
H        5.92058339       5.84284464       7.12678304       0.00002934      -0.00002095       0.00000633
H        5.92060073       7.45600938       7.12675217       0.00001617       0.00000746       0.00000463
H        9.77770866       5.24996380       7.12678610       0.00001975      -0.00001723      -0.00000914
H        7.33571595       2.20604348       7.12676203       0.00000222       0.00001522       0.00000351
H        5.93868266       1.39944684       7.12678280      -0.00002905       0.00001251       0.00000614
H        1.73926643       1.39938563       3.50951424       0.00005924      -0.00002676      -0.00006202
H        9.43542743       7.45588955       3.50948872       0.00001016      -0.00001103       0.00001689
H        9.43543712       5.84271712       3.50948903       0.00000249       0.00004636       0.00002202
H        4.18122934       4.44328674       3.50949894       0.00003512       0.00002796       0.00002086
H        5.57828279       5.24986381       3.50948841      -0.00001846       0.00000577       0.00001675
H        0.34223175       2.20596329       3.50952392      -0.00005678       0.00004022      -0.00006285
H       11.17476149       4.44337563       7.12679576      -0.00002068       0.00000619      -0.00001005
O        1.27860204       2.21474408       0.44276322       0.00000010      -0.00000401       0.00004346
O        5.12066677      -0.00001896       0.44280376      -0.00001954      -0.00001003       0.00000990
O        5.11761991       4.43468745       0.44280449       0.00000540      -0.00002392       0.00000976
O        6.39633150       6.64932330       4.06008035      -0.00002168      -0.00000444      -0.00000696
O        6.39932284       2.21464887       4.06008124       0.00000268      -0.00001907      -0.00000714
O        6.41005222       6.64941475       6.78266519      -0.00002093      -0.00000078       0.00001364
O        6.39246285       2.22662148       6.78266376       0.00001318      -0.00002064       0.00001374
O        1.28547673       2.22655970       3.16540887      -0.00002174      -0.00003335       0.00002856
O        8.94598711       6.64930261       3.16537003       0.00000994       0.00001733       0.00000820
O        5.12447378       4.42270543       3.16536862       0.00000666       0.00001948       0.00000824
O       10.23838324       4.43460167       4.06012447      -0.00000640      -0.00000668      -0.00001768
O       10.23150891       4.42278703       6.78268711       0.00001904       0.00002860       0.00000203
