data_image0
_chemical_formula_structural       H24O12
_chemical_formula_sum              "H24 O12"
_cell_length_a       7.505779278991855
_cell_length_b       7.505778534589727
_cell_length_c       7.072207002581526
_cell_angle_alpha    90.0
_cell_angle_beta     90.0
_cell_angle_gamma    60.00000102757209

_space_group_name_H-M_alt    "P 1"
_space_group_IT_number       1

loop_
  _space_group_symop_operation_xyz
  'x, y, z'

loop_
  _atom_site_type_symbol
  _atom_site_label
  _atom_site_symmetry_multiplicity
  _atom_site_fract_x
  _atom_site_fract_y
  _atom_site_fract_z
  _atom_site_occupancy
  H   H1        1.0  0.9999927932517645  0.33559404405773385  0.20321229010465966  1.0000
  H   H2        1.0  0.6643916595028648  0.9999928209594382  0.2032122883955258  1.0000
  H   H3        1.0  0.33559384056657826  0.6643917736246526  0.20321227661546987  1.0000
  H   H4        1.0  0.3355941182135945  0.9999924558887419  0.7032127068491888  1.0000
  H   H5        1.0  0.999992984535386  0.6643912338250831  0.7032127075373082  1.0000
  H   H6        1.0  0.6643919372672843  0.33559350316984776  0.7032126950281385  1.0000
  H   H7        1.0  0.5382734989416534  0.9999933437312987  0.01688143243276004  1.0000
  H   H8        1.0  0.9999925387598563  0.4617124078933091  0.01688160138860556  1.0000
  H   H9        1.0  0.4617115700473253  0.5382743124553139  0.016881263142578453  1.0000
  H   H10       1.0  0.46171194962198076  0.999991933524912  0.5168815684228539  1.0000
  H   H11       1.0  0.9999932390289437  0.5382731991013693  0.5168817364389763  1.0000
  H   H12       1.0  0.5382745368931008  0.46171063564062786  0.5168813991145553  1.0000
  H   H13       1.0  0.3312681494848746  0.8748969607159958  0.985287566067848  1.0000
  H   H14       1.0  0.20617175864303375  0.12508977491930007  0.9852873020533514  1.0000
  H   H15       1.0  0.8748961315168599  0.7938141374556433  0.9852872984649075  1.0000
  H   H16       1.0  0.7938133243150763  0.33126897870326477  0.9852874368395265  1.0000
  H   H17       1.0  0.668716935719768  0.2061725642589597  0.9852875732340847  1.0000
  H   H18       1.0  0.12508972701461574  0.20617104032266478  0.4852873465383638  1.0000
  H   H19       1.0  0.6687176444201497  0.1250884001524235  0.48528761476143095  1.0000
  H   H20       1.0  0.7938141177011983  0.8748954235438147  0.48528735174759074  1.0000
  H   H21       1.0  0.20617235492679617  0.6687163182846679  0.485287486543352  1.0000
  H   H22       1.0  0.3312688259358306  0.7938128127084167  0.48528762194635544  1.0000
  H   H23       1.0  0.874896761125872  0.3312675199899006  0.48528747412263623  1.0000
  H   H24       1.0  0.12508893588120884  0.6687177385819839  0.9852874260651844  1.0000
  O   O1        1.0  0.999992557319894  0.3335530002868995  0.06062220973434446  1.0000
  O   O2        1.0  0.6664328578931717  0.9999932993221304  0.060622212983642225  1.0000
  O   O3        1.0  0.3335522644359336  0.6664335922013304  0.060622202907492095  1.0000
  O   O4        1.0  0.333553286850374  0.9999919773814663  0.5606216184252835  1.0000
  O   O5        1.0  0.6664331464163674  0.33355205144126243  0.5606216083964851  1.0000
  O   O6        1.0  0.33367598622090194  0.9999933049126515  0.9363637435230978  1.0000
  O   O7        1.0  0.6663091672284368  0.3336767054580682  0.936363730197384  1.0000
  O   O8        1.0  0.9999932099691609  0.3336755400034363  0.43636362567969983  1.0000
  O   O9        1.0  0.6663096545095707  0.9999919730798272  0.436363620290337  1.0000
  O   O10       1.0  0.333676747591411  0.6663084354720004  0.43636360697823556  1.0000
  O   O11       1.0  0.9999932204724536  0.6664319137155407  0.5606216180183626  1.0000
  O   O12       1.0  0.9999925677764788  0.6663098732155516  0.9363637490099818  1.0000
