data_image0
_chemical_formula_structural       Li15Fe16P16O64
_chemical_formula_sum              "Li15 Fe16 P16 O64"
_cell_length_a       10.23619605
_cell_length_b       11.9415102
_cell_length_c       9.30983438
_cell_angle_alpha    90.00002115
_cell_angle_beta     90.0
_cell_angle_gamma    90.0

_space_group_name_H-M_alt    "P 1"
_space_group_IT_number       1

loop_
  _space_group_symop_operation_xyz
  'x, y, z'

loop_
  _atom_site_type_symbol
  _atom_site_label
  _atom_site_symmetry_multiplicity
  _atom_site_fract_x
  _atom_site_fract_y
  _atom_site_fract_z
  _atom_site_occupancy
  Li  Li1       1.0  0.9999774865195191  0.00014342346283678962  0.0005011285903507853  1.0000
  Li  Li2       1.0  7.523009334840219e-05  0.0009325697384221334  0.49955931303648987  1.0000
  Li  Li3       1.0  0.9999248393666552  0.4990675104109481  0.00044083826291319033  1.0000
  Li  Li4       1.0  2.2583521200980314e-05  0.49985665708106025  0.4994990221603362  1.0000
  Li  Li5       1.0  0.5000000419549089  0.25000003799642284  0.7500000732404871  1.0000
  Li  Li6       1.0  0.5000000422875592  0.7500000383516928  0.2500000743237428  1.0000
  Li  Li7       1.0  0.5000000415095275  0.7500000376701329  0.7500000742243347  1.0000
  Li  Li8       1.0  0.4976443575880237  0.010441628147604685  0.2556842811052766  1.0000
  Li  Li9       1.0  0.5001225895774429  0.001711481501445874  0.7531965901667633  1.0000
  Li  Li10      1.0  0.5023557189405121  0.48955844645517493  0.2443158717724882  1.0000
  Li  Li11      1.0  0.49987748974498153  0.49828859340620396  0.7468035608448839  1.0000
  Li  Li12      1.0  0.9992585208298551  0.2504507318792526  0.0005359390493211693  1.0000
  Li  Li13      1.0  0.0007415555860714441  0.24954933623397968  0.49946421519999706  1.0000
  Li  Li14      1.0  0.9998999288606593  0.7499554029463895  0.00029536036354591835  1.0000
  Li  Li15      1.0  0.00010014549023830883  0.7500446670618286  0.499704793665578  1.0000
  Fe  Fe1       1.0  0.7743341701931127  0.12681699017235276  0.2629276605200696  1.0000
  Fe  Fe2       1.0  0.777176336580092  0.12503488390877232  0.7673345273454536  1.0000
  Fe  Fe3       1.0  0.7781738393571813  0.6250364620420107  0.26403280929932077  1.0000
  Fe  Fe4       1.0  0.7782501778861933  0.6250085988904576  0.7646424922013138  1.0000
  Fe  Fe5       1.0  0.7198122917250879  0.37386659698512326  0.015637824980733354  1.0000
  Fe  Fe6       1.0  0.7210473689446272  0.3736079581629453  0.5121517145188133  1.0000
  Fe  Fe7       1.0  0.7202556966191003  0.8769751619064108  0.01596052215097574  1.0000
  Fe  Fe8       1.0  0.7215497640205766  0.8762768516288914  0.5140760581208021  1.0000
  Fe  Fe9       1.0  0.2801877741278235  0.12613347613418568  0.4843623075844745  1.0000
  Fe  Fe10      1.0  0.27895269851051663  0.12639211545150084  0.9878484192382184  1.0000
  Fe  Fe11      1.0  0.2797443689681606  0.6230249134660041  0.4840396110186012  1.0000
  Fe  Fe12      1.0  0.2784503031295722  0.6237232209092276  0.9859240770041084  1.0000
  Fe  Fe13      1.0  0.2256658989712724  0.3731830835715905  0.23707248654858493  1.0000
  Fe  Fe14      1.0  0.22282372923905458  0.3749651898996951  0.7326656229239896  1.0000
  Fe  Fe15      1.0  0.22182623054972256  0.8749636125301988  0.23596734048331794  1.0000
  Fe  Fe16      1.0  0.22174989146966317  0.8749914742611336  0.7353576590385715  1.0000
  P   P1        1.0  0.08860593118219673  0.12493361336364947  0.20736183968843017  1.0000
  P   P2        1.0  0.08982269940569812  0.1246630205788563  0.7073278825809584  1.0000
  P   P3        1.0  0.08947739427323208  0.6245755276660757  0.2066063132636297  1.0000
  P   P4        1.0  0.08980824654848  0.6250988828622843  0.7060383006728793  1.0000
  P   P5        1.0  0.4122685166756539  0.3730684857501523  0.45632359975540177  1.0000
  P   P6        1.0  0.4079063899633449  0.3774138991731869  0.95602123311177  1.0000
  P   P7        1.0  0.41033777587428955  0.8745945589164306  0.457012581022751  1.0000
  P   P8        1.0  0.409020494443235  0.8747047857168905  0.9572603778845646  1.0000
  P   P9        1.0  0.5877315549710346  0.12693158618239656  0.043676547668838724  1.0000
  P   P10       1.0  0.5920936814203768  0.12258617223833237  0.5439789147655346  1.0000
  P   P11       1.0  0.5896622947849832  0.625405514244571  0.04298756811565724  1.0000
  P   P12       1.0  0.5909795759041162  0.6252952861281008  0.5427397707260853  1.0000
  P   P13       1.0  0.9113941412013273  0.3750664585638476  0.29263830252465617  1.0000
  P   P14       1.0  0.9101773724585758  0.3753370512335952  0.7926722591251455  1.0000
  P   P15       1.0  0.9105226785206187  0.875424543654072  0.2933938294328618  1.0000
  P   P16       1.0  0.9101918250249511  0.8749011896779152  0.7939618419157979  1.0000
  O   O1        1.0  0.09236366730558206  0.12482071534712812  0.37178980566475284  1.0000
  O   O2        1.0  0.09360717644678102  0.12430185288051576  0.8717616308181506  1.0000
  O   O3        1.0  0.09250206266949723  0.6250276741126499  0.3710178422939945  1.0000
  O   O4        1.0  0.09260158045949268  0.6249922631076227  0.8704250499984565  1.0000
  O   O5        1.0  0.8408998822325866  0.27182688960275175  0.36203779242249906  1.0000
  O   O6        1.0  0.8396706799863204  0.27185833918355445  0.8612206748167311  1.0000
  O   O7        1.0  0.8390382905613427  0.7722011943701131  0.3620743684924606  1.0000
  O   O8        1.0  0.8384600593446119  0.7719607195534679  0.8626557514668751  1.0000
  O   O9        1.0  0.8398619218961184  0.47835793899684614  0.3612420571612033  1.0000
  O   O10       1.0  0.8382564776440621  0.4779901747540509  0.8623033879804739  1.0000
  O   O11       1.0  0.8399711497676445  0.9786983370030639  0.3621122182508724  1.0000
  O   O12       1.0  0.8394000743119994  0.9780872580651421  0.8633835094853666  1.0000
  O   O13       1.0  0.9076363990983767  0.375179355175031  0.12821033697762843  1.0000
  O   O14       1.0  0.9063928883329287  0.3756982188797617  0.6282385114622889  1.0000
  O   O15       1.0  0.9074980029568716  0.8749723977658043  0.12898230080021  1.0000
  O   O16       1.0  0.9073984848982294  0.8750078093997529  0.6295750930806481  1.0000
  O   O17       1.0  0.05147606670409897  0.37549981368534485  0.3556425239175114  1.0000
  O   O18       1.0  0.05037202307126209  0.37563596877657474  0.8553392677274618  1.0000
  O   O19       1.0  0.05064962595552725  0.8747248476986018  0.35685675570397135  1.0000
  O   O20       1.0  0.050339862794913766  0.8745939497300937  0.8570623463795173  1.0000
  O   O21       1.0  0.4002331070876691  0.3831824054427303  0.1182962556446796  1.0000
  O   O22       1.0  0.40830439489536624  0.37456389321075184  0.6219883436318744  1.0000
  O   O23       1.0  0.40530310159249733  0.8737244618986328  0.12147540852615049  1.0000
  O   O24       1.0  0.4070561722777528  0.8744288407678439  0.6214326440724341  1.0000
  O   O25       1.0  0.16013815451567112  0.021642135216575202  0.13875808306323914  1.0000
  O   O26       1.0  0.1617435997254118  0.02200989944336436  0.6376967531833371  1.0000
  O   O27       1.0  0.16002892701817623  0.5213017367178379  0.13788792222380003  1.0000
  O   O28       1.0  0.16060000189429124  0.5219128171754313  0.6366166311047161  1.0000
  O   O29       1.0  0.6674032271868907  0.2266445563699577  0.10627928386462883  1.0000
  O   O30       1.0  0.6631407451036184  0.2264491204198899  0.6121153015650552  1.0000
  O   O31       1.0  0.6613670645084516  0.7285438534582265  0.11160701514855138  1.0000
  O   O32       1.0  0.6615444194561747  0.7288267675766453  0.6122879542244559  1.0000
  O   O33       1.0  0.3325968520191941  0.27335551330204955  0.39372086092903885  1.0000
  O   O34       1.0  0.33685933471195845  0.2735509485747918  0.8878848459811223  1.0000
  O   O35       1.0  0.338633014384908  0.7714562180143257  0.38839313191875824  1.0000
  O   O36       1.0  0.33845565939897154  0.7711733019066868  0.8877121939779008  1.0000
  O   O37       1.0  0.34117962359052667  0.4778815874635803  0.38820239182324007  1.0000
  O   O38       1.0  0.33876445039850517  0.48021103761528305  0.881265724359707  1.0000
  O   O39       1.0  0.3383207830747475  0.9777481844262426  0.38883845548280643  1.0000
  O   O40       1.0  0.3368245440658585  0.9772873391579531  0.888110648301646  1.0000
  O   O41       1.0  0.9485240027369004  0.12450026122124949  0.14435762960383233  1.0000
  O   O42       1.0  0.9496280461286171  0.12436410766682103  0.6446608845519101  1.0000
  O   O43       1.0  0.9493504436921983  0.6252752256700362  0.14314339923798575  1.0000
  O   O44       1.0  0.9496602057877255  0.6254061257352057  0.6429378073269102  1.0000
  O   O45       1.0  0.4475651238068675  0.1236187661573505  0.10174954729835924  1.0000
  O   O46       1.0  0.45112180761790655  0.1243417348694742  0.6054302412288892  1.0000
  O   O47       1.0  0.4498974587729803  0.6254365304319457  0.10625138241729096  1.0000
  O   O48       1.0  0.45081514039843146  0.6249769124312572  0.6057252890087611  1.0000
  O   O49       1.0  0.5524349473061968  0.3763813064345185  0.39825059625315323  1.0000
  O   O50       1.0  0.5488782635315356  0.37565833804161197  0.8945699040502592  1.0000
  O   O51       1.0  0.550102612036568  0.8745635464836851  0.39374876602208636  1.0000
  O   O52       1.0  0.5491849301902577  0.875023163396747  0.8942748585671104  1.0000
  O   O53       1.0  0.5997669544812648  0.11681766782002946  0.3817038915719788  1.0000
  O   O54       1.0  0.5916956671640116  0.12543618068654078  0.878011803009743  1.0000
  O   O55       1.0  0.5946969605487141  0.6262756095563004  0.3785247393773096  1.0000
  O   O56       1.0  0.5929438895559069  0.6255712297983584  0.8785675043169653  1.0000
  O   O57       1.0  0.658820456679716  0.022118486482287734  0.1117977546141058  1.0000
  O   O58       1.0  0.6612356332357632  0.019789036379837727  0.6187344203520531  1.0000
  O   O59       1.0  0.6616792994754422  0.5222518918076124  0.11116168996600935  1.0000
  O   O60       1.0  0.6631755377064985  0.5227127354270652  0.6118894969726919  1.0000
  O   O61       1.0  0.15910018962149136  0.2281731816548167  0.13796234721921674  1.0000
  O   O62       1.0  0.1603293932172571  0.2281417316567334  0.6387794647357947  1.0000
  O   O63       1.0  0.16096178366844588  0.7277988750658716  0.13792577054849037  1.0000
  O   O64       1.0  0.16154001448003358  0.7280393506637152  0.6373443865820522  1.0000
