data_image0
_chemical_formula_structural       Li15Fe16P16O64
_chemical_formula_sum              "Li15 Fe16 P16 O64"
_cell_length_a       10.23619605
_cell_length_b       11.9415102
_cell_length_c       9.30983438
_cell_angle_alpha    90.00002115
_cell_angle_beta     90.0
_cell_angle_gamma    90.0

_space_group_name_H-M_alt    "P 1"
_space_group_IT_number       1

loop_
  _space_group_symop_operation_xyz
  'x, y, z'

loop_
  _atom_site_type_symbol
  _atom_site_label
  _atom_site_symmetry_multiplicity
  _atom_site_fract_x
  _atom_site_fract_y
  _atom_site_fract_z
  _atom_site_occupancy
  Li  Li1       1.0  7.523012522715851e-05  0.0009325698064445714  0.9995593130798287  1.0000
  Li  Li2       1.0  0.9999774865156564  0.00014342339662320357  0.5005011285363195  1.0000
  Li  Li3       1.0  2.2583442565948916e-05  0.4998566571204061  0.9994990222511582  1.0000
  Li  Li4       1.0  0.9999248394439557  0.49906751037565694  0.5004408381378684  1.0000
  Li  Li5       1.0  0.5000000419555057  0.2500000379347081  0.2500000732560667  1.0000
  Li  Li6       1.0  0.5000000415266579  0.7500000376162471  0.2500000741864545  1.0000
  Li  Li7       1.0  0.50000004229132  0.7500000384223152  0.7500000743762065  1.0000
  Li  Li8       1.0  0.5001225895984867  0.0017114814800486215  0.2531965900763709  1.0000
  Li  Li9       1.0  0.49764435751249564  0.010441628199418322  0.7556842812070941  1.0000
  Li  Li10      1.0  0.4998774895937274  0.4982885934043586  0.2468035608476643  1.0000
  Li  Li11      1.0  0.5023557190345067  0.489558446499882  0.7443158718227821  1.0000
  Li  Li12      1.0  0.0007415556259989056  0.24954933625276376  0.9994642152506037  1.0000
  Li  Li13      1.0  0.999258520771653  0.2504507318651065  0.5005359390030162  1.0000
  Li  Li14      1.0  0.00010014553210006208  0.7500446670309895  0.9997047937501713  1.0000
  Li  Li15      1.0  0.9998999287982517  0.7499554029754766  0.5002953603077804  1.0000
  Fe  Fe1       1.0  0.7771763366326908  0.12503488379134758  0.26733452728200574  1.0000
  Fe  Fe2       1.0  0.7743341700638269  0.12681699027559346  0.762927660543429  1.0000
  Fe  Fe3       1.0  0.7782501779659742  0.6250085988922056  0.2646424920914399  1.0000
  Fe  Fe4       1.0  0.7781738392952993  0.6250364620328982  0.7640328093612127  1.0000
  Fe  Fe5       1.0  0.721047368787285  0.37360795810488473  0.012151714630705577  1.0000
  Fe  Fe6       1.0  0.7198122918400934  0.37386659703055714  0.515637824867163  1.0000
  Fe  Fe7       1.0  0.7215497638336167  0.8762768516246016  0.014076058115057985  1.0000
  Fe  Fe8       1.0  0.7202556967734814  0.8769751619243642  0.5159605221794452  1.0000
  Fe  Fe9       1.0  0.2789526985552486  0.12639211544666376  0.48784841932305306  1.0000
  Fe  Fe10      1.0  0.2801877741327047  0.12613347614018225  0.9843623074767713  1.0000
  Fe  Fe11      1.0  0.2784503032891972  0.6237232209297575  0.4859240771375084  1.0000
  Fe  Fe12      1.0  0.27974436888448195  0.6230249134157071  0.9840396108559785  1.0000
  Fe  Fe13      1.0  0.2228237293897867  0.3749651899287093  0.23266562295839002  1.0000
  Fe  Fe14      1.0  0.22566589885402807  0.3731830835640222  0.7370724865548538  1.0000
  Fe  Fe15      1.0  0.2217498915469175  0.8749914742139105  0.23535765920927915  1.0000
  Fe  Fe16      1.0  0.22182623046036945  0.8749636125502678  0.7359673403760082  1.0000
  P   P1        1.0  0.08982269947944684  0.12466302060082356  0.20732788258418924  1.0000
  P   P2        1.0  0.0886059311087409  0.12493361332486748  0.707361839698721  1.0000
  P   P3        1.0  0.08980824669755946  0.6250988827923462  0.20603830070513868  1.0000
  P   P4        1.0  0.0894773941413265  0.6245755277152725  0.7066063132546468  1.0000
  P   P5        1.0  0.4079063899623972  0.377413899183119  0.4560212330892256  1.0000
  P   P6        1.0  0.4122685166750746  0.3730684857500767  0.956323599762519  1.0000
  P   P7        1.0  0.40902049442168426  0.8747047857317123  0.45726037792190005  1.0000
  P   P8        1.0  0.4103377758743651  0.874594558905312  0.9570125809905878  1.0000
  P   P9        1.0  0.5920936814138795  0.12258617222705033  0.0439789147691501  1.0000
  P   P10       1.0  0.5877315550187594  0.126931586228506  0.5436765476825163  1.0000
  P   P11       1.0  0.5909795758753699  0.6252952860806852  0.04273977068822035  1.0000
  P   P12       1.0  0.5896622948242578  0.6254055143109506  0.5429875681423546  1.0000
  P   P13       1.0  0.910177372456439  0.3753370511923847  0.29267225908977323  1.0000
  P   P14       1.0  0.9113941411841885  0.37506645859318805  0.7926383025397715  1.0000
  P   P15       1.0  0.9101918250137059  0.8749011896103689  0.2939618419076624  1.0000
  P   P16       1.0  0.9105226785402206  0.8754245437152074  0.793393829420766  1.0000
  O   O1        1.0  0.09360717650570345  0.12430185296192481  0.37176163082856983  1.0000
  O   O2        1.0  0.09236366724114994  0.12482071526754167  0.8717898056726677  1.0000
  O   O3        1.0  0.09260158055303512  0.6249922630817363  0.37042505003388776  1.0000
  O   O4        1.0  0.09250206256710843  0.6250276741029592  0.8710178422848773  1.0000
  O   O5        1.0  0.8396706799860058  0.2718583391595676  0.361220674851015  1.0000
  O   O6        1.0  0.8408998822287405  0.2718268896181799  0.8620377923892929  1.0000
  O   O7        1.0  0.8384600593242416  0.7719607195002498  0.3626557514405737  1.0000
  O   O8        1.0  0.839038290592089  0.7722011944216015  0.8620743684927853  1.0000
  O   O9        1.0  0.8382564775315126  0.4779901746724744  0.3623033879434723  1.0000
  O   O10       1.0  0.8398619219878856  0.47835793907327717  0.8612420571490328  1.0000
  O   O11       1.0  0.8394000742471139  0.9780872579709288  0.36338350949036985  1.0000
  O   O12       1.0  0.839971149856165  0.9786983370778534  0.8621122182722893  1.0000
  O   O13       1.0  0.9063928884318679  0.3756982188322522  0.12823851143071513  1.0000
  O   O14       1.0  0.907636398994076  0.3751793552177948  0.6282103369879748  1.0000
  O   O15       1.0  0.9073984847424451  0.8750078093334012  0.1295750930936978  1.0000
  O   O16       1.0  0.9074980031306445  0.8749723978229139  0.6289823007642263  1.0000
  O   O17       1.0  0.050372023079627126  0.37563596876800004  0.3553392676458442  1.0000
  O   O18       1.0  0.05147606668919534  0.3754998137038514  0.8556425239278352  1.0000
  O   O19       1.0  0.05033986278426553  0.8745939496614576  0.3570623463810545  1.0000
  O   O20       1.0  0.05064962598471123  0.8747248477418599  0.8568567556467982  1.0000
  O   O21       1.0  0.4083043947978162  0.37456389319683897  0.12198834363991175  1.0000
  O   O22       1.0  0.40023310718201616  0.38318240547524307  0.6182962556049244  1.0000
  O   O23       1.0  0.40705617227896174  0.874428840779937  0.12143264403631848  1.0000
  O   O24       1.0  0.4053031016003899  0.8737244619102492  0.6214754085571302  1.0000
  O   O25       1.0  0.16174359981871275  0.022009899465835737  0.13769675321262945  1.0000
  O   O26       1.0  0.16013815445731502  0.021642135184569696  0.6387580830763497  1.0000
  O   O27       1.0  0.16060000191710136  0.5219128171235067  0.13661663093971904  1.0000
  O   O28       1.0  0.16002892701771232  0.5213017367722348  0.6378879223744027  1.0000
  O   O29       1.0  0.6631407451720048  0.22644912037526566  0.11211530155775104  1.0000
  O   O30       1.0  0.6674032271915912  0.22664455641451117  0.6062792839475106  1.0000
  O   O31       1.0  0.661544419521393  0.7288267674685612  0.11228795425699067  1.0000
  O   O32       1.0  0.6613670644462479  0.728543853578354  0.6116070151287555  1.0000
  O   O33       1.0  0.33685933465132056  0.2735509486265477  0.38788484589438593  1.0000
  O   O34       1.0  0.33259685204942885  0.27335551328270297  0.8937208610096794  1.0000
  O   O35       1.0  0.33845565937202193  0.7711733019515448  0.3877121938684771  1.0000
  O   O36       1.0  0.33863301438017984  0.7714562179912616  0.8883931319969063  1.0000
  O   O37       1.0  0.3387644503512039  0.4802110376056797  0.38126572426146227  1.0000
  O   O38       1.0  0.34117962361652326  0.47788158745576503  0.8882023918508818  1.0000
  O   O39       1.0  0.3368245439932335  0.9772873391255836  0.3881106482629313  1.0000
  O   O40       1.0  0.33832078317349  0.9777481844763097  0.8888384555193065  1.0000
  O   O41       1.0  0.9496280461688567  0.12436410755251705  0.14466088461040422  1.0000
  O   O42       1.0  0.9485240026942214  0.12450026129770922  0.6443576295600792  1.0000
  O   O43       1.0  0.9496602058777942  0.6254061257200538  0.1429378075042143  1.0000
  O   O44       1.0  0.9493504436077066  0.625275225671233  0.643143399114245  1.0000
  O   O45       1.0  0.4511218076393467  0.12434173489331385  0.10543024124883672  1.0000
  O   O46       1.0  0.44756512382470476  0.12361876614419241  0.6017495472243038  1.0000
  O   O47       1.0  0.4508151403875347  0.6249769124136734  0.1057252889584211  1.0000
  O   O48       1.0  0.44989745877680726  0.6254365305151489  0.6062513824070234  1.0000
  O   O49       1.0  0.548878263538695  0.3756583380667576  0.39456990406965364  1.0000
  O   O50       1.0  0.5524349472889346  0.3763813064076491  0.8982505962165116  1.0000
  O   O51       1.0  0.5491849302014944  0.8750231633924425  0.39427485878231056  1.0000
  O   O52       1.0  0.550102612027891  0.8745635464523636  0.8937487658903005  1.0000
  O   O53       1.0  0.5916956672087005  0.1254361807847541  0.37801180301557974  1.0000
  O   O54       1.0  0.5997669543892428  0.11681766774239238  0.8817038915937354  1.0000
  O   O55       1.0  0.5929438896209414  0.625571229761414  0.37856750435443587  1.0000
  O   O56       1.0  0.5946969604102338  0.6262756095846572  0.8785247393332297  1.0000
  O   O57       1.0  0.6612356332301571  0.019789036373570167  0.11873442039406631  1.0000
  O   O58       1.0  0.6588204566910385  0.022118486525760088  0.6117977546241408  1.0000
  O   O59       1.0  0.6631755376531775  0.5227127353548742  0.1118894969055862  1.0000
  O   O60       1.0  0.661679299531998  0.5222518918977066  0.6111616900038075  1.0000
  O   O61       1.0  0.16032939311261135  0.22814173172375532  0.13877946466736626  1.0000
  O   O62       1.0  0.1591001897423549  0.22817318155944571  0.6379623473166368  1.0000
  O   O63       1.0  0.1615400145974739  0.7280393505635641  0.13734438650876346  1.0000
  O   O64       1.0  0.16096178357130447  0.727798875142734  0.6379257706741313  1.0000
