data_image0
_chemical_formula_structural       H24O12
_chemical_formula_sum              "H24 O12"
_cell_length_a       7.505779278991843
_cell_length_b       7.505778534589555
_cell_length_c       7.072207002581824
_cell_angle_alpha    90.0
_cell_angle_beta     90.0
_cell_angle_gamma    60.0000010275714

_space_group_name_H-M_alt    "P 1"
_space_group_IT_number       1

loop_
  _space_group_symop_operation_xyz
  'x, y, z'

loop_
  _atom_site_type_symbol
  _atom_site_label
  _atom_site_symmetry_multiplicity
  _atom_site_fract_x
  _atom_site_fract_y
  _atom_site_fract_z
  _atom_site_occupancy
  H   H1        1.0  0.9999927932517616  0.3355940440577359  0.2032122901046587  1.0000
  H   H2        1.0  0.6643916595028602  0.9999928209594393  0.20321228839552696  1.0000
  H   H3        1.0  0.33559384056657615  0.6643917736246528  0.20321227661546884  1.0000
  H   H4        1.0  0.3355941182136005  0.9999924558887433  0.7032127068491896  1.0000
  H   H5        1.0  0.9999929845353913  0.6643912338250834  0.7032127075373075  1.0000
  H   H6        1.0  0.6643919372672881  0.33559350316984976  0.7032126950281373  1.0000
  H   H7        1.0  0.5382734989416506  0.9999933437313  0.01688143243276334  1.0000
  H   H8        1.0  0.9999925387598545  0.461712407893314  0.01688160138860883  1.0000
  H   H9        1.0  0.461711570047327  0.5382743124553113  0.016881263142581992  1.0000
  H   H10       1.0  0.4617119496219854  0.999991933524914  0.5168815684228568  1.0000
  H   H11       1.0  0.9999932390289464  0.5382731991013672  0.5168817364389798  1.0000
  H   H12       1.0  0.538274536893101  0.46171063564063164  0.5168813991145588  1.0000
  H   H13       1.0  0.33126814948487754  0.8748969607159944  0.9852875660678427  1.0000
  H   H14       1.0  0.20617175864303475  0.12508977491930362  0.9852873020533456  1.0000
  H   H15       1.0  0.8748961315168613  0.7938141374556459  0.9852872984649019  1.0000
  H   H16       1.0  0.793813324315079  0.33126897870326644  0.9852874368395227  1.0000
  H   H17       1.0  0.6687169357197705  0.20617256425895997  0.9852875732340795  1.0000
  H   H18       1.0  0.12508972701461563  0.20617104032266487  0.4852873465383587  1.0000
  H   H19       1.0  0.6687176444201476  0.12508840015242684  0.48528761476142535  1.0000
  H   H20       1.0  0.7938141177011979  0.874895423543814  0.4852873517475847  1.0000
  H   H21       1.0  0.20617235492679492  0.6687163182846687  0.48528748654334836  1.0000
  H   H22       1.0  0.3312688259358299  0.7938128127084181  0.48528762194635033  1.0000
  H   H23       1.0  0.8748967611258707  0.33126751998990134  0.4852874741226325  1.0000
  H   H24       1.0  0.12508893588121128  0.6687177385819864  0.9852874260651808  1.0000
  O   O1        1.0  0.9999925573198926  0.3335530002869019  0.06062220973434897  1.0000
  O   O2        1.0  0.6664328578931668  0.9999932993221315  0.06062221298364518  1.0000
  O   O3        1.0  0.3335522644359332  0.6664335922013309  0.060622202907497015  1.0000
  O   O4        1.0  0.33355328685037916  0.9999919773814672  0.5606216184252876  1.0000
  O   O5        1.0  0.6664331464163689  0.33355205144126504  0.5606216083964899  1.0000
  O   O6        1.0  0.33367598622090294  0.999993304912654  0.9363637435230899  1.0000
  O   O7        1.0  0.6663091672284409  0.33367670545806644  0.936363730197377  1.0000
  O   O8        1.0  0.9999932099691624  0.33367554000343363  0.4363636256796922  1.0000
  O   O9        1.0  0.6663096545095714  0.9999919730798278  0.4363636202903294  1.0000
  O   O10       1.0  0.33367674759140864  0.6663084354720054  0.4363636069782284  1.0000
  O   O11       1.0  0.999993220472456  0.6664319137155409  0.560621618018367  1.0000
  O   O12       1.0  0.9999925677764779  0.6663098732155566  0.9363637490099738  1.0000
