data_image0
_chemical_formula_structural       H24O12
_chemical_formula_sum              "H24 O12"
_cell_length_a       7.505779278991579
_cell_length_b       7.50577853458949
_cell_length_c       7.072207002581986
_cell_angle_alpha    90.0
_cell_angle_beta     90.0
_cell_angle_gamma    60.0000010275723

_space_group_name_H-M_alt    "P 1"
_space_group_IT_number       1

loop_
  _space_group_symop_operation_xyz
  'x, y, z'

loop_
  _atom_site_type_symbol
  _atom_site_label
  _atom_site_symmetry_multiplicity
  _atom_site_fract_x
  _atom_site_fract_y
  _atom_site_fract_z
  _atom_site_occupancy
  H   H1        1.0  0.9999927932517636  0.33559404405773624  0.20321229010466368  1.0000
  H   H2        1.0  0.6643916595028622  0.999992820959439  0.20321228839552952  1.0000
  H   H3        1.0  0.3355938405665787  0.6643917736246527  0.20321227661547406  1.0000
  H   H4        1.0  0.33559411821359625  0.9999924558887435  0.7032127068491921  1.0000
  H   H5        1.0  0.9999929845353869  0.6643912338250829  0.7032127075373127  1.0000
  H   H6        1.0  0.6643919372672829  0.33559350316985065  0.7032126950281423  1.0000
  H   H7        1.0  0.5382734989416486  0.9999933437312998  0.016881432432767584  1.0000
  H   H8        1.0  0.9999925387598556  0.4617124078933136  0.016881601388613887  1.0000
  H   H9        1.0  0.46171157004732777  0.5382743124553118  0.016881263142587227  1.0000
  H   H10       1.0  0.46171194962198475  0.9999919335249136  0.5168815684228611  1.0000
  H   H11       1.0  0.9999932390289435  0.5382731991013674  0.5168817364389845  1.0000
  H   H12       1.0  0.5382745368930971  0.46171063564063264  0.5168813991145637  1.0000
  H   H13       1.0  0.33126814948487504  0.8748969607159937  0.9852875660678437  1.0000
  H   H14       1.0  0.20617175864303217  0.1250897749193034  0.9852873020533467  1.0000
  H   H15       1.0  0.8748961315168579  0.7938141374556451  0.9852872984649022  1.0000
  H   H16       1.0  0.793813324315079  0.3312689787032675  0.9852874368395228  1.0000
  H   H17       1.0  0.6687169357197664  0.20617256425895997  0.9852875732340796  1.0000
  H   H18       1.0  0.12508972701461782  0.20617104032266445  0.4852873465383595  1.0000
  H   H19       1.0  0.6687176444201485  0.12508840015242773  0.4852876147614262  1.0000
  H   H20       1.0  0.7938141177011987  0.8748954235438137  0.4852873517475857  1.0000
  H   H21       1.0  0.2061723549267938  0.6687163182846676  0.4852874865433481  1.0000
  H   H22       1.0  0.33126882593583146  0.7938128127084195  0.4852876219463509  1.0000
  H   H23       1.0  0.8748967611258678  0.33126751998990295  0.48528747412263273  1.0000
  H   H24       1.0  0.12508893588121373  0.6687177385819838  0.9852874260651812  1.0000
  O   O1        1.0  0.9999925573198939  0.3335530002869033  0.06062220973435384  1.0000
  O   O2        1.0  0.6664328578931679  0.9999932993221312  0.06062221298365052  1.0000
  O   O3        1.0  0.33355226443593694  0.6664335922013287  0.060622202907501456  1.0000
  O   O4        1.0  0.33355328685037694  0.999991977381468  0.5606216184252926  1.0000
  O   O5        1.0  0.6664331464163639  0.3335520514412663  0.560621608396495  1.0000
  O   O6        1.0  0.3336759862208991  0.9999933049126545  0.9363637435230883  1.0000
  O   O7        1.0  0.6663091672284376  0.33367670545806644  0.9363637301973762  1.0000
  O   O8        1.0  0.9999932099691612  0.3336755400034352  0.43636362567969145  1.0000
  O   O9        1.0  0.666309654509573  0.9999919730798273  0.43636362029032755  1.0000
  O   O10       1.0  0.33367674759140925  0.6663084354720039  0.43636360697822724  1.0000
  O   O11       1.0  0.9999932204724528  0.6664319137155397  0.5606216180183714  1.0000
  O   O12       1.0  0.999992567776475  0.6663098732155563  0.9363637490099734  1.0000
