data_image0
_chemical_formula_structural       H24O12
_chemical_formula_sum              "H24 O12"
_cell_length_a       7.505779278991452
_cell_length_b       7.505778534589459
_cell_length_c       7.072207002581986
_cell_angle_alpha    90.0
_cell_angle_beta     90.0
_cell_angle_gamma    60.00000102757272

_space_group_name_H-M_alt    "P 1"
_space_group_IT_number       1

loop_
  _space_group_symop_operation_xyz
  'x, y, z'

loop_
  _atom_site_type_symbol
  _atom_site_label
  _atom_site_symmetry_multiplicity
  _atom_site_fract_x
  _atom_site_fract_y
  _atom_site_fract_z
  _atom_site_occupancy
  H   H1        1.0  0.9999927932517667  0.3355940440577362  0.20321229010466302  1.0000
  H   H2        1.0  0.6643916595028649  0.9999928209594384  0.20321228839552904  1.0000
  H   H3        1.0  0.3355938405665826  0.6643917736246514  0.2032122766154742  1.0000
  H   H4        1.0  0.3355941182135975  0.9999924558887425  0.703212706849192  1.0000
  H   H5        1.0  0.9999929845353875  0.6643912338250815  0.7032127075373124  1.0000
  H   H6        1.0  0.6643919372672833  0.33559350316985037  0.7032126950281418  1.0000
  H   H7        1.0  0.5382734989416486  0.9999933437312991  0.016881432432767417  1.0000
  H   H8        1.0  0.9999925387598585  0.46171240789331464  0.016881601388614987  1.0000
  H   H9        1.0  0.4617115700473315  0.5382743124553102  0.016881263142588438  1.0000
  H   H10       1.0  0.46171194962198886  0.9999919335249129  0.5168815684228611  1.0000
  H   H11       1.0  0.9999932390289448  0.5382731991013654  0.516881736438986  1.0000
  H   H12       1.0  0.5382745368930969  0.4617106356406328  0.5168813991145648  1.0000
  H   H13       1.0  0.3312681494848759  0.8748969607159925  0.9852875660678441  1.0000
  H   H14       1.0  0.20617175864303275  0.12508977491930273  0.9852873020533467  1.0000
  H   H15       1.0  0.8748961315168614  0.7938141374556418  0.9852872984649013  1.0000
  H   H16       1.0  0.793813324315083  0.33126897870326666  0.9852874368395232  1.0000
  H   H17       1.0  0.6687169357197678  0.20617256425896135  0.9852875732340791  1.0000
  H   H18       1.0  0.1250897270146185  0.20617104032266584  0.48528734653835875  1.0000
  H   H19       1.0  0.6687176444201522  0.1250884001524255  0.4852876147614263  1.0000
  H   H20       1.0  0.793814117701204  0.8748954235438114  0.4852873517475863  1.0000
  H   H21       1.0  0.20617235492679226  0.6687163182846672  0.4852874865433493  1.0000
  H   H22       1.0  0.3312688259358346  0.793812812708415  0.4852876219463497  1.0000
  H   H23       1.0  0.8748967611258675  0.33126751998990206  0.4852874741226334  1.0000
  H   H24       1.0  0.12508893588121683  0.668717738581984  0.985287426065182  1.0000
  O   O1        1.0  0.9999925573198978  0.333553000286902  0.0606222097343571  1.0000
  O   O2        1.0  0.6664328578931723  0.9999932993221308  0.06062221298365155  1.0000
  O   O3        1.0  0.3335522644359414  0.6664335922013276  0.060622202907503676  1.0000
  O   O4        1.0  0.33355328685037616  0.999991977381467  0.5606216184252935  1.0000
  O   O5        1.0  0.6664331464163646  0.3335520514412652  0.5606216083964979  1.0000
  O   O6        1.0  0.33367598622089834  0.9999933049126545  0.9363637435230863  1.0000
  O   O7        1.0  0.6663091672284374  0.3336767054580626  0.936363730197375  1.0000
  O   O8        1.0  0.9999932099691692  0.33367554000343086  0.4363636256796907  1.0000
  O   O9        1.0  0.6663096545095762  0.9999919730798289  0.43636362029032577  1.0000
  O   O10       1.0  0.333676747591415  0.6663084354720086  0.43636360697822657  1.0000
  O   O11       1.0  0.999993220472453  0.6664319137155383  0.5606216180183746  1.0000
  O   O12       1.0  0.9999925677764708  0.6663098732155597  0.9363637490099728  1.0000
